400
Graphite cell with dimension 5x5x2 and a= 2.46
 C 0.0000000000000000e+00 0.0000000000000000e+00 0.0000000000000000e+00 crystal_vector 1 1.2300000000000001e+01 0.0000000000000000e+00 0.0000000000000000e+00
 C 0.0000000000000000e+00 1.4202816622064793e+00 0.0000000000000000e+00 crystal_vector 2 0.0000000000000000e+00 2.1304224933097192e+01 0.0000000000000000e+00
 C 1.2300000000000000e+00 2.1304224933097191e+00 0.0000000000000000e+00 crystal_vector 3 0.0000000000000000e+00 0.0000000000000000e+00 1.3400000000000208e+01
 C 1.2300000000000000e+00 3.5507041555161987e+00 0.0000000000000000e+00
 C 0.0000000000000000e+00 0.0000000000000000e+00 3.3500000000000520e+00
 C 0.0000000000000000e+00 2.8405633244129587e+00 3.3500000000000520e+00
 C 1.2300000000000000e+00 2.1304224933097191e+00 3.3500000000000520e+00
 C 1.2300000000000000e+00 7.1014083110323967e-01 3.3500000000000520e+00
 C 2.4600000000000000e+00 0.0000000000000000e+00 0.0000000000000000e+00
 C 2.4600000000000000e+00 1.4202816622064793e+00 0.0000000000000000e+00
 C 3.6899999999999999e+00 2.1304224933097191e+00 0.0000000000000000e+00
 C 3.6899999999999999e+00 3.5507041555161987e+00 0.0000000000000000e+00
 C 2.4600000000000000e+00 0.0000000000000000e+00 3.3500000000000520e+00
 C 2.4600000000000000e+00 2.8405633244129587e+00 3.3500000000000520e+00
 C 3.6899999999999999e+00 2.1304224933097191e+00 3.3500000000000520e+00
 C 3.6899999999999999e+00 7.1014083110323967e-01 3.3500000000000520e+00
 C 4.9199999999999999e+00 0.0000000000000000e+00 0.0000000000000000e+00
 C 4.9199999999999999e+00 1.4202816622064793e+00 0.0000000000000000e+00
 C 6.1500000000000004e+00 2.1304224933097191e+00 0.0000000000000000e+00
 C 6.1500000000000004e+00 3.5507041555161987e+00 0.0000000000000000e+00
 C 4.9199999999999999e+00 0.0000000000000000e+00 3.3500000000000520e+00
 C 4.9199999999999999e+00 2.8405633244129587e+00 3.3500000000000520e+00
 C 6.1500000000000004e+00 2.1304224933097191e+00 3.3500000000000520e+00
 C 6.1500000000000004e+00 7.1014083110323967e-01 3.3500000000000520e+00
 C 7.3799999999999999e+00 0.0000000000000000e+00 0.0000000000000000e+00
 C 7.3799999999999999e+00 1.4202816622064793e+00 0.0000000000000000e+00
 C 8.6099999999999994e+00 2.1304224933097191e+00 0.0000000000000000e+00
 C 8.6099999999999994e+00 3.5507041555161987e+00 0.0000000000000000e+00
 C 7.3799999999999999e+00 0.0000000000000000e+00 3.3500000000000520e+00
 C 7.3799999999999999e+00 2.8405633244129587e+00 3.3500000000000520e+00
 C 8.6099999999999994e+00 2.1304224933097191e+00 3.3500000000000520e+00
 C 8.6099999999999994e+00 7.1014083110323967e-01 3.3500000000000520e+00
 C 9.8399999999999999e+00 0.0000000000000000e+00 0.0000000000000000e+00
 C 9.8399999999999999e+00 1.4202816622064793e+00 0.0000000000000000e+00
 C 1.1070000000000000e+01 2.1304224933097191e+00 0.0000000000000000e+00
 C 1.1070000000000000e+01 3.5507041555161987e+00 0.0000000000000000e+00
 C 9.8399999999999999e+00 0.0000000000000000e+00 3.3500000000000520e+00
 C 9.8399999999999999e+00 2.8405633244129587e+00 3.3500000000000520e+00
 C 1.1070000000000000e+01 2.1304224933097191e+00 3.3500000000000520e+00
 C 1.1070000000000000e+01 7.1014083110323967e-01 3.3500000000000520e+00
 C 0.0000000000000000e+00 4.2608449866194382e+00 0.0000000000000000e+00
 C 0.0000000000000000e+00 5.6811266488259173e+00 0.0000000000000000e+00
 C 1.2300000000000000e+00 6.3912674799291569e+00 0.0000000000000000e+00
 C 1.2300000000000000e+00 7.8115491421356378e+00 0.0000000000000000e+00
 C 0.0000000000000000e+00 4.2608449866194382e+00 3.3500000000000520e+00
 C 0.0000000000000000e+00 7.1014083110323964e+00 3.3500000000000520e+00
 C 1.2300000000000000e+00 6.3912674799291569e+00 3.3500000000000520e+00
 C 1.2300000000000000e+00 4.9709858177226787e+00 3.3500000000000520e+00
 C 2.4600000000000000e+00 4.2608449866194382e+00 0.0000000000000000e+00
 C 2.4600000000000000e+00 5.6811266488259173e+00 0.0000000000000000e+00
 C 3.6899999999999999e+00 6.3912674799291569e+00 0.0000000000000000e+00
 C 3.6899999999999999e+00 7.8115491421356378e+00 0.0000000000000000e+00
 C 2.4600000000000000e+00 4.2608449866194382e+00 3.3500000000000520e+00
 C 2.4600000000000000e+00 7.1014083110323964e+00 3.3500000000000520e+00
 C 3.6899999999999999e+00 6.3912674799291569e+00 3.3500000000000520e+00
 C 3.6899999999999999e+00 4.9709858177226787e+00 3.3500000000000520e+00
 C 4.9199999999999999e+00 4.2608449866194382e+00 0.0000000000000000e+00
 C 4.9199999999999999e+00 5.6811266488259173e+00 0.0000000000000000e+00
 C 6.1500000000000004e+00 6.3912674799291569e+00 0.0000000000000000e+00
 C 6.1500000000000004e+00 7.8115491421356378e+00 0.0000000000000000e+00
 C 4.9199999999999999e+00 4.2608449866194382e+00 3.3500000000000520e+00
 C 4.9199999999999999e+00 7.1014083110323964e+00 3.3500000000000520e+00
 C 6.1500000000000004e+00 6.3912674799291569e+00 3.3500000000000520e+00
 C 6.1500000000000004e+00 4.9709858177226787e+00 3.3500000000000520e+00
 C 7.3799999999999999e+00 4.2608449866194382e+00 0.0000000000000000e+00
 C 7.3799999999999999e+00 5.6811266488259173e+00 0.0000000000000000e+00
 C 8.6099999999999994e+00 6.3912674799291569e+00 0.0000000000000000e+00
 C 8.6099999999999994e+00 7.8115491421356378e+00 0.0000000000000000e+00
 C 7.3799999999999999e+00 4.2608449866194382e+00 3.3500000000000520e+00
 C 7.3799999999999999e+00 7.1014083110323964e+00 3.3500000000000520e+00
 C 8.6099999999999994e+00 6.3912674799291569e+00 3.3500000000000520e+00
 C 8.6099999999999994e+00 4.9709858177226787e+00 3.3500000000000520e+00
 C 9.8399999999999999e+00 4.2608449866194382e+00 0.0000000000000000e+00
 C 9.8399999999999999e+00 5.6811266488259173e+00 0.0000000000000000e+00
 C 1.1070000000000000e+01 6.3912674799291569e+00 0.0000000000000000e+00
 C 1.1070000000000000e+01 7.8115491421356378e+00 0.0000000000000000e+00
 C 9.8399999999999999e+00 4.2608449866194382e+00 3.3500000000000520e+00
 C 9.8399999999999999e+00 7.1014083110323964e+00 3.3500000000000520e+00
 C 1.1070000000000000e+01 6.3912674799291569e+00 3.3500000000000520e+00
 C 1.1070000000000000e+01 4.9709858177226787e+00 3.3500000000000520e+00
 C 0.0000000000000000e+00 8.5216899732388764e+00 0.0000000000000000e+00
 C 0.0000000000000000e+00 9.9419716354453573e+00 0.0000000000000000e+00
 C 1.2300000000000000e+00 1.0652112466548596e+01 0.0000000000000000e+00
 C 1.2300000000000000e+00 1.2072394128755075e+01 0.0000000000000000e+00
 C 0.0000000000000000e+00 8.5216899732388764e+00 3.3500000000000520e+00
 C 0.0000000000000000e+00 1.1362253297651835e+01 3.3500000000000520e+00
 C 1.2300000000000000e+00 1.0652112466548596e+01 3.3500000000000520e+00
 C 1.2300000000000000e+00 9.2318308043421151e+00 3.3500000000000520e+00
 C 2.4600000000000000e+00 8.5216899732388764e+00 0.0000000000000000e+00
 C 2.4600000000000000e+00 9.9419716354453573e+00 0.0000000000000000e+00
 C 3.6899999999999999e+00 1.0652112466548596e+01 0.0000000000000000e+00
 C 3.6899999999999999e+00 1.2072394128755075e+01 0.0000000000000000e+00
 C 2.4600000000000000e+00 8.5216899732388764e+00 3.3500000000000520e+00
 C 2.4600000000000000e+00 1.1362253297651835e+01 3.3500000000000520e+00
 C 3.6899999999999999e+00 1.0652112466548596e+01 3.3500000000000520e+00
 C 3.6899999999999999e+00 9.2318308043421151e+00 3.3500000000000520e+00
 C 4.9199999999999999e+00 8.5216899732388764e+00 0.0000000000000000e+00
 C 4.9199999999999999e+00 9.9419716354453573e+00 0.0000000000000000e+00
 C 6.1500000000000004e+00 1.0652112466548596e+01 0.0000000000000000e+00
 C 6.1500000000000004e+00 1.2072394128755075e+01 0.0000000000000000e+00
 C 4.9199999999999999e+00 8.5216899732388764e+00 3.3500000000000520e+00
 C 4.9199999999999999e+00 1.1362253297651835e+01 3.3500000000000520e+00
 C 6.1500000000000004e+00 1.0652112466548596e+01 3.3500000000000520e+00
 C 6.1500000000000004e+00 9.2318308043421151e+00 3.3500000000000520e+00
 C 7.3799999999999999e+00 8.5216899732388764e+00 0.0000000000000000e+00
 C 7.3799999999999999e+00 9.9419716354453573e+00 0.0000000000000000e+00
 C 8.6099999999999994e+00 1.0652112466548596e+01 0.0000000000000000e+00
 C 8.6099999999999994e+00 1.2072394128755075e+01 0.0000000000000000e+00
 C 7.3799999999999999e+00 8.5216899732388764e+00 3.3500000000000520e+00
 C 7.3799999999999999e+00 1.1362253297651835e+01 3.3500000000000520e+00
 C 8.6099999999999994e+00 1.0652112466548596e+01 3.3500000000000520e+00
 C 8.6099999999999994e+00 9.2318308043421151e+00 3.3500000000000520e+00
 C 9.8399999999999999e+00 8.5216899732388764e+00 0.0000000000000000e+00
 C 9.8399999999999999e+00 9.9419716354453573e+00 0.0000000000000000e+00
 C 1.1070000000000000e+01 1.0652112466548596e+01 0.0000000000000000e+00
 C 1.1070000000000000e+01 1.2072394128755075e+01 0.0000000000000000e+00
 C 9.8399999999999999e+00 8.5216899732388764e+00 3.3500000000000520e+00
 C 9.8399999999999999e+00 1.1362253297651835e+01 3.3500000000000520e+00
 C 1.1070000000000000e+01 1.0652112466548596e+01 3.3500000000000520e+00
 C 1.1070000000000000e+01 9.2318308043421151e+00 3.3500000000000520e+00
 C 0.0000000000000000e+00 1.2782534959858314e+01 0.0000000000000000e+00
 C 0.0000000000000000e+00 1.4202816622064795e+01 0.0000000000000000e+00
 C 1.2300000000000000e+00 1.4912957453168033e+01 0.0000000000000000e+00
 C 1.2300000000000000e+00 1.6333239115374514e+01 0.0000000000000000e+00
 C 0.0000000000000000e+00 1.2782534959858314e+01 3.3500000000000520e+00
 C 0.0000000000000000e+00 1.5623098284271272e+01 3.3500000000000520e+00
 C 1.2300000000000000e+00 1.4912957453168033e+01 3.3500000000000520e+00
 C 1.2300000000000000e+00 1.3492675790961554e+01 3.3500000000000520e+00
 C 2.4600000000000000e+00 1.2782534959858314e+01 0.0000000000000000e+00
 C 2.4600000000000000e+00 1.4202816622064795e+01 0.0000000000000000e+00
 C 3.6899999999999999e+00 1.4912957453168033e+01 0.0000000000000000e+00
 C 3.6899999999999999e+00 1.6333239115374514e+01 0.0000000000000000e+00
 C 2.4600000000000000e+00 1.2782534959858314e+01 3.3500000000000520e+00
 C 2.4600000000000000e+00 1.5623098284271272e+01 3.3500000000000520e+00
 C 3.6899999999999999e+00 1.4912957453168033e+01 3.3500000000000520e+00
 C 3.6899999999999999e+00 1.3492675790961554e+01 3.3500000000000520e+00
 C 4.9199999999999999e+00 1.2782534959858314e+01 0.0000000000000000e+00
 C 4.9199999999999999e+00 1.4202816622064795e+01 0.0000000000000000e+00
 C 6.1500000000000004e+00 1.4912957453168033e+01 0.0000000000000000e+00
 C 6.1500000000000004e+00 1.6333239115374514e+01 0.0000000000000000e+00
 C 4.9199999999999999e+00 1.2782534959858314e+01 3.3500000000000520e+00
 C 4.9199999999999999e+00 1.5623098284271272e+01 3.3500000000000520e+00
 C 6.1500000000000004e+00 1.4912957453168033e+01 3.3500000000000520e+00
 C 6.1500000000000004e+00 1.3492675790961554e+01 3.3500000000000520e+00
 C 7.3799999999999999e+00 1.2782534959858314e+01 0.0000000000000000e+00
 C 7.3799999999999999e+00 1.4202816622064795e+01 0.0000000000000000e+00
 C 8.6099999999999994e+00 1.4912957453168033e+01 0.0000000000000000e+00
 C 8.6099999999999994e+00 1.6333239115374514e+01 0.0000000000000000e+00
 C 7.3799999999999999e+00 1.2782534959858314e+01 3.3500000000000520e+00
 C 7.3799999999999999e+00 1.5623098284271272e+01 3.3500000000000520e+00
 C 8.6099999999999994e+00 1.4912957453168033e+01 3.3500000000000520e+00
 C 8.6099999999999994e+00 1.3492675790961554e+01 3.3500000000000520e+00
 C 9.8399999999999999e+00 1.2782534959858314e+01 0.0000000000000000e+00
 C 9.8399999999999999e+00 1.4202816622064795e+01 0.0000000000000000e+00
 C 1.1070000000000000e+01 1.4912957453168033e+01 0.0000000000000000e+00
 C 1.1070000000000000e+01 1.6333239115374514e+01 0.0000000000000000e+00
 C 9.8399999999999999e+00 1.2782534959858314e+01 3.3500000000000520e+00
 C 9.8399999999999999e+00 1.5623098284271272e+01 3.3500000000000520e+00
 C 1.1070000000000000e+01 1.4912957453168033e+01 3.3500000000000520e+00
 C 1.1070000000000000e+01 1.3492675790961554e+01 3.3500000000000520e+00
 C 0.0000000000000000e+00 1.7043379946477753e+01 0.0000000000000000e+00
 C 0.0000000000000000e+00 1.8463661608684230e+01 0.0000000000000000e+00
 C 1.2300000000000000e+00 1.9173802439787472e+01 0.0000000000000000e+00
 C 1.2300000000000000e+00 2.0594084101993950e+01 0.0000000000000000e+00
 C 0.0000000000000000e+00 1.7043379946477753e+01 3.3500000000000520e+00
 C 0.0000000000000000e+00 1.9883943270890715e+01 3.3500000000000520e+00
 C 1.2300000000000000e+00 1.9173802439787472e+01 3.3500000000000520e+00
 C 1.2300000000000000e+00 1.7753520777580995e+01 3.3500000000000520e+00
 C 2.4600000000000000e+00 1.7043379946477753e+01 0.0000000000000000e+00
 C 2.4600000000000000e+00 1.8463661608684230e+01 0.0000000000000000e+00
 C 3.6899999999999999e+00 1.9173802439787472e+01 0.0000000000000000e+00
 C 3.6899999999999999e+00 2.0594084101993950e+01 0.0000000000000000e+00
 C 2.4600000000000000e+00 1.7043379946477753e+01 3.3500000000000520e+00
 C 2.4600000000000000e+00 1.9883943270890715e+01 3.3500000000000520e+00
 C 3.6899999999999999e+00 1.9173802439787472e+01 3.3500000000000520e+00
 C 3.6899999999999999e+00 1.7753520777580995e+01 3.3500000000000520e+00
 C 4.9199999999999999e+00 1.7043379946477753e+01 0.0000000000000000e+00
 C 4.9199999999999999e+00 1.8463661608684230e+01 0.0000000000000000e+00
 C 6.1500000000000004e+00 1.9173802439787472e+01 0.0000000000000000e+00
 C 6.1500000000000004e+00 2.0594084101993950e+01 0.0000000000000000e+00
 C 4.9199999999999999e+00 1.7043379946477753e+01 3.3500000000000520e+00
 C 4.9199999999999999e+00 1.9883943270890715e+01 3.3500000000000520e+00
 C 6.1500000000000004e+00 1.9173802439787472e+01 3.3500000000000520e+00
 C 6.1500000000000004e+00 1.7753520777580995e+01 3.3500000000000520e+00
 C 7.3799999999999999e+00 1.7043379946477753e+01 0.0000000000000000e+00
 C 7.3799999999999999e+00 1.8463661608684230e+01 0.0000000000000000e+00
 C 8.6099999999999994e+00 1.9173802439787472e+01 0.0000000000000000e+00
 C 8.6099999999999994e+00 2.0594084101993950e+01 0.0000000000000000e+00
 C 7.3799999999999999e+00 1.7043379946477753e+01 3.3500000000000520e+00
 C 7.3799999999999999e+00 1.9883943270890715e+01 3.3500000000000520e+00
 C 8.6099999999999994e+00 1.9173802439787472e+01 3.3500000000000520e+00
 C 8.6099999999999994e+00 1.7753520777580995e+01 3.3500000000000520e+00
 C 9.8399999999999999e+00 1.7043379946477753e+01 0.0000000000000000e+00
 C 9.8399999999999999e+00 1.8463661608684230e+01 0.0000000000000000e+00
 C 1.1070000000000000e+01 1.9173802439787472e+01 0.0000000000000000e+00
 C 1.1070000000000000e+01 2.0594084101993950e+01 0.0000000000000000e+00
 C 9.8399999999999999e+00 1.7043379946477753e+01 3.3500000000000520e+00
 C 9.8399999999999999e+00 1.9883943270890715e+01 3.3500000000000520e+00
 C 1.1070000000000000e+01 1.9173802439787472e+01 3.3500000000000520e+00
 C 1.1070000000000000e+01 1.7753520777580995e+01 3.3500000000000520e+00
 C 0.0000000000000000e+00 0.0000000000000000e+00 6.7000000000001041e+00
 C 0.0000000000000000e+00 1.4202816622064793e+00 6.7000000000001041e+00
 C 1.2300000000000000e+00 2.1304224933097191e+00 6.7000000000001041e+00
 C 1.2300000000000000e+00 3.5507041555161987e+00 6.7000000000001041e+00
 C 0.0000000000000000e+00 0.0000000000000000e+00 1.0050000000000157e+01
 C 0.0000000000000000e+00 2.8405633244129587e+00 1.0050000000000157e+01
 C 1.2300000000000000e+00 2.1304224933097191e+00 1.0050000000000157e+01
 C 1.2300000000000000e+00 7.1014083110323967e-01 1.0050000000000157e+01
 C 2.4600000000000000e+00 0.0000000000000000e+00 6.7000000000001041e+00
 C 2.4600000000000000e+00 1.4202816622064793e+00 6.7000000000001041e+00
 C 3.6899999999999999e+00 2.1304224933097191e+00 6.7000000000001041e+00
 C 3.6899999999999999e+00 3.5507041555161987e+00 6.7000000000001041e+00
 C 2.4600000000000000e+00 0.0000000000000000e+00 1.0050000000000157e+01
 C 2.4600000000000000e+00 2.8405633244129587e+00 1.0050000000000157e+01
 C 3.6899999999999999e+00 2.1304224933097191e+00 1.0050000000000157e+01
 C 3.6899999999999999e+00 7.1014083110323967e-01 1.0050000000000157e+01
 C 4.9199999999999999e+00 0.0000000000000000e+00 6.7000000000001041e+00
 C 4.9199999999999999e+00 1.4202816622064793e+00 6.7000000000001041e+00
 C 6.1500000000000004e+00 2.1304224933097191e+00 6.7000000000001041e+00
 C 6.1500000000000004e+00 3.5507041555161987e+00 6.7000000000001041e+00
 C 4.9199999999999999e+00 0.0000000000000000e+00 1.0050000000000157e+01
 C 4.9199999999999999e+00 2.8405633244129587e+00 1.0050000000000157e+01
 C 6.1500000000000004e+00 2.1304224933097191e+00 1.0050000000000157e+01
 C 6.1500000000000004e+00 7.1014083110323967e-01 1.0050000000000157e+01
 C 7.3799999999999999e+00 0.0000000000000000e+00 6.7000000000001041e+00
 C 7.3799999999999999e+00 1.4202816622064793e+00 6.7000000000001041e+00
 C 8.6099999999999994e+00 2.1304224933097191e+00 6.7000000000001041e+00
 C 8.6099999999999994e+00 3.5507041555161987e+00 6.7000000000001041e+00
 C 7.3799999999999999e+00 0.0000000000000000e+00 1.0050000000000157e+01
 C 7.3799999999999999e+00 2.8405633244129587e+00 1.0050000000000157e+01
 C 8.6099999999999994e+00 2.1304224933097191e+00 1.0050000000000157e+01
 C 8.6099999999999994e+00 7.1014083110323967e-01 1.0050000000000157e+01
 C 9.8399999999999999e+00 0.0000000000000000e+00 6.7000000000001041e+00
 C 9.8399999999999999e+00 1.4202816622064793e+00 6.7000000000001041e+00
 C 1.1070000000000000e+01 2.1304224933097191e+00 6.7000000000001041e+00
 C 1.1070000000000000e+01 3.5507041555161987e+00 6.7000000000001041e+00
 C 9.8399999999999999e+00 0.0000000000000000e+00 1.0050000000000157e+01
 C 9.8399999999999999e+00 2.8405633244129587e+00 1.0050000000000157e+01
 C 1.1070000000000000e+01 2.1304224933097191e+00 1.0050000000000157e+01
 C 1.1070000000000000e+01 7.1014083110323967e-01 1.0050000000000157e+01
 C 0.0000000000000000e+00 4.2608449866194382e+00 6.7000000000001041e+00
 C 0.0000000000000000e+00 5.6811266488259173e+00 6.7000000000001041e+00
 C 1.2300000000000000e+00 6.3912674799291569e+00 6.7000000000001041e+00
 C 1.2300000000000000e+00 7.8115491421356378e+00 6.7000000000001041e+00
 C 0.0000000000000000e+00 4.2608449866194382e+00 1.0050000000000157e+01
 C 0.0000000000000000e+00 7.1014083110323964e+00 1.0050000000000157e+01
 C 1.2300000000000000e+00 6.3912674799291569e+00 1.0050000000000157e+01
 C 1.2300000000000000e+00 4.9709858177226787e+00 1.0050000000000157e+01
 C 2.4600000000000000e+00 4.2608449866194382e+00 6.7000000000001041e+00
 C 2.4600000000000000e+00 5.6811266488259173e+00 6.7000000000001041e+00
 C 3.6899999999999999e+00 6.3912674799291569e+00 6.7000000000001041e+00
 C 3.6899999999999999e+00 7.8115491421356378e+00 6.7000000000001041e+00
 C 2.4600000000000000e+00 4.2608449866194382e+00 1.0050000000000157e+01
 C 2.4600000000000000e+00 7.1014083110323964e+00 1.0050000000000157e+01
 C 3.6899999999999999e+00 6.3912674799291569e+00 1.0050000000000157e+01
 C 3.6899999999999999e+00 4.9709858177226787e+00 1.0050000000000157e+01
 C 4.9199999999999999e+00 4.2608449866194382e+00 6.7000000000001041e+00
 C 4.9199999999999999e+00 5.6811266488259173e+00 6.7000000000001041e+00
 C 6.1500000000000004e+00 6.3912674799291569e+00 6.7000000000001041e+00
 C 6.1500000000000004e+00 7.8115491421356378e+00 6.7000000000001041e+00
 C 4.9199999999999999e+00 4.2608449866194382e+00 1.0050000000000157e+01
 C 4.9199999999999999e+00 7.1014083110323964e+00 1.0050000000000157e+01
 C 6.1500000000000004e+00 6.3912674799291569e+00 1.0050000000000157e+01
 C 6.1500000000000004e+00 4.9709858177226787e+00 1.0050000000000157e+01
 C 7.3799999999999999e+00 4.2608449866194382e+00 6.7000000000001041e+00
 C 7.3799999999999999e+00 5.6811266488259173e+00 6.7000000000001041e+00
 C 8.6099999999999994e+00 6.3912674799291569e+00 6.7000000000001041e+00
 C 8.6099999999999994e+00 7.8115491421356378e+00 6.7000000000001041e+00
 C 7.3799999999999999e+00 4.2608449866194382e+00 1.0050000000000157e+01
 C 7.3799999999999999e+00 7.1014083110323964e+00 1.0050000000000157e+01
 C 8.6099999999999994e+00 6.3912674799291569e+00 1.0050000000000157e+01
 C 8.6099999999999994e+00 4.9709858177226787e+00 1.0050000000000157e+01
 C 9.8399999999999999e+00 4.2608449866194382e+00 6.7000000000001041e+00
 C 9.8399999999999999e+00 5.6811266488259173e+00 6.7000000000001041e+00
 C 1.1070000000000000e+01 6.3912674799291569e+00 6.7000000000001041e+00
 C 1.1070000000000000e+01 7.8115491421356378e+00 6.7000000000001041e+00
 C 9.8399999999999999e+00 4.2608449866194382e+00 1.0050000000000157e+01
 C 9.8399999999999999e+00 7.1014083110323964e+00 1.0050000000000157e+01
 C 1.1070000000000000e+01 6.3912674799291569e+00 1.0050000000000157e+01
 C 1.1070000000000000e+01 4.9709858177226787e+00 1.0050000000000157e+01
 C 0.0000000000000000e+00 8.5216899732388764e+00 6.7000000000001041e+00
 C 0.0000000000000000e+00 9.9419716354453573e+00 6.7000000000001041e+00
 C 1.2300000000000000e+00 1.0652112466548596e+01 6.7000000000001041e+00
 C 1.2300000000000000e+00 1.2072394128755075e+01 6.7000000000001041e+00
 C 0.0000000000000000e+00 8.5216899732388764e+00 1.0050000000000157e+01
 C 0.0000000000000000e+00 1.1362253297651835e+01 1.0050000000000157e+01
 C 1.2300000000000000e+00 1.0652112466548596e+01 1.0050000000000157e+01
 C 1.2300000000000000e+00 9.2318308043421151e+00 1.0050000000000157e+01
 C 2.4600000000000000e+00 8.5216899732388764e+00 6.7000000000001041e+00
 C 2.4600000000000000e+00 9.9419716354453573e+00 6.7000000000001041e+00
 C 3.6899999999999999e+00 1.0652112466548596e+01 6.7000000000001041e+00
 C 3.6899999999999999e+00 1.2072394128755075e+01 6.7000000000001041e+00
 C 2.4600000000000000e+00 8.5216899732388764e+00 1.0050000000000157e+01
 C 2.4600000000000000e+00 1.1362253297651835e+01 1.0050000000000157e+01
 C 3.6899999999999999e+00 1.0652112466548596e+01 1.0050000000000157e+01
 C 3.6899999999999999e+00 9.2318308043421151e+00 1.0050000000000157e+01
 C 4.9199999999999999e+00 8.5216899732388764e+00 6.7000000000001041e+00
 C 4.9199999999999999e+00 9.9419716354453573e+00 6.7000000000001041e+00
 C 6.1500000000000004e+00 1.0652112466548596e+01 6.7000000000001041e+00
 C 6.1500000000000004e+00 1.2072394128755075e+01 6.7000000000001041e+00
 C 4.9199999999999999e+00 8.5216899732388764e+00 1.0050000000000157e+01
 C 4.9199999999999999e+00 1.1362253297651835e+01 1.0050000000000157e+01
 C 6.1500000000000004e+00 1.0652112466548596e+01 1.0050000000000157e+01
 C 6.1500000000000004e+00 9.2318308043421151e+00 1.0050000000000157e+01
 C 7.3799999999999999e+00 8.5216899732388764e+00 6.7000000000001041e+00
 C 7.3799999999999999e+00 9.9419716354453573e+00 6.7000000000001041e+00
 C 8.6099999999999994e+00 1.0652112466548596e+01 6.7000000000001041e+00
 C 8.6099999999999994e+00 1.2072394128755075e+01 6.7000000000001041e+00
 C 7.3799999999999999e+00 8.5216899732388764e+00 1.0050000000000157e+01
 C 7.3799999999999999e+00 1.1362253297651835e+01 1.0050000000000157e+01
 C 8.6099999999999994e+00 1.0652112466548596e+01 1.0050000000000157e+01
 C 8.6099999999999994e+00 9.2318308043421151e+00 1.0050000000000157e+01
 C 9.8399999999999999e+00 8.5216899732388764e+00 6.7000000000001041e+00
 C 9.8399999999999999e+00 9.9419716354453573e+00 6.7000000000001041e+00
 C 1.1070000000000000e+01 1.0652112466548596e+01 6.7000000000001041e+00
 C 1.1070000000000000e+01 1.2072394128755075e+01 6.7000000000001041e+00
 C 9.8399999999999999e+00 8.5216899732388764e+00 1.0050000000000157e+01
 C 9.8399999999999999e+00 1.1362253297651835e+01 1.0050000000000157e+01
 C 1.1070000000000000e+01 1.0652112466548596e+01 1.0050000000000157e+01
 C 1.1070000000000000e+01 9.2318308043421151e+00 1.0050000000000157e+01
 C 0.0000000000000000e+00 1.2782534959858314e+01 6.7000000000001041e+00
 C 0.0000000000000000e+00 1.4202816622064795e+01 6.7000000000001041e+00
 C 1.2300000000000000e+00 1.4912957453168033e+01 6.7000000000001041e+00
 C 1.2300000000000000e+00 1.6333239115374514e+01 6.7000000000001041e+00
 C 0.0000000000000000e+00 1.2782534959858314e+01 1.0050000000000157e+01
 C 0.0000000000000000e+00 1.5623098284271272e+01 1.0050000000000157e+01
 C 1.2300000000000000e+00 1.4912957453168033e+01 1.0050000000000157e+01
 C 1.2300000000000000e+00 1.3492675790961554e+01 1.0050000000000157e+01
 C 2.4600000000000000e+00 1.2782534959858314e+01 6.7000000000001041e+00
 C 2.4600000000000000e+00 1.4202816622064795e+01 6.7000000000001041e+00
 C 3.6899999999999999e+00 1.4912957453168033e+01 6.7000000000001041e+00
 C 3.6899999999999999e+00 1.6333239115374514e+01 6.7000000000001041e+00
 C 2.4600000000000000e+00 1.2782534959858314e+01 1.0050000000000157e+01
 C 2.4600000000000000e+00 1.5623098284271272e+01 1.0050000000000157e+01
 C 3.6899999999999999e+00 1.4912957453168033e+01 1.0050000000000157e+01
 C 3.6899999999999999e+00 1.3492675790961554e+01 1.0050000000000157e+01
 C 4.9199999999999999e+00 1.2782534959858314e+01 6.7000000000001041e+00
 C 4.9199999999999999e+00 1.4202816622064795e+01 6.7000000000001041e+00
 C 6.1500000000000004e+00 1.4912957453168033e+01 6.7000000000001041e+00
 C 6.1500000000000004e+00 1.6333239115374514e+01 6.7000000000001041e+00
 C 4.9199999999999999e+00 1.2782534959858314e+01 1.0050000000000157e+01
 C 4.9199999999999999e+00 1.5623098284271272e+01 1.0050000000000157e+01
 C 6.1500000000000004e+00 1.4912957453168033e+01 1.0050000000000157e+01
 C 6.1500000000000004e+00 1.3492675790961554e+01 1.0050000000000157e+01
 C 7.3799999999999999e+00 1.2782534959858314e+01 6.7000000000001041e+00
 C 7.3799999999999999e+00 1.4202816622064795e+01 6.7000000000001041e+00
 C 8.6099999999999994e+00 1.4912957453168033e+01 6.7000000000001041e+00
 C 8.6099999999999994e+00 1.6333239115374514e+01 6.7000000000001041e+00
 C 7.3799999999999999e+00 1.2782534959858314e+01 1.0050000000000157e+01
 C 7.3799999999999999e+00 1.5623098284271272e+01 1.0050000000000157e+01
 C 8.6099999999999994e+00 1.4912957453168033e+01 1.0050000000000157e+01
 C 8.6099999999999994e+00 1.3492675790961554e+01 1.0050000000000157e+01
 C 9.8399999999999999e+00 1.2782534959858314e+01 6.7000000000001041e+00
 C 9.8399999999999999e+00 1.4202816622064795e+01 6.7000000000001041e+00
 C 1.1070000000000000e+01 1.4912957453168033e+01 6.7000000000001041e+00
 C 1.1070000000000000e+01 1.6333239115374514e+01 6.7000000000001041e+00
 C 9.8399999999999999e+00 1.2782534959858314e+01 1.0050000000000157e+01
 C 9.8399999999999999e+00 1.5623098284271272e+01 1.0050000000000157e+01
 C 1.1070000000000000e+01 1.4912957453168033e+01 1.0050000000000157e+01
 C 1.1070000000000000e+01 1.3492675790961554e+01 1.0050000000000157e+01
 C 0.0000000000000000e+00 1.7043379946477753e+01 6.7000000000001041e+00
 C 0.0000000000000000e+00 1.8463661608684230e+01 6.7000000000001041e+00
 C 1.2300000000000000e+00 1.9173802439787472e+01 6.7000000000001041e+00
 C 1.2300000000000000e+00 2.0594084101993950e+01 6.7000000000001041e+00
 C 0.0000000000000000e+00 1.7043379946477753e+01 1.0050000000000157e+01
 C 0.0000000000000000e+00 1.9883943270890715e+01 1.0050000000000157e+01
 C 1.2300000000000000e+00 1.9173802439787472e+01 1.0050000000000157e+01
 C 1.2300000000000000e+00 1.7753520777580995e+01 1.0050000000000157e+01
 C 2.4600000000000000e+00 1.7043379946477753e+01 6.7000000000001041e+00
 C 2.4600000000000000e+00 1.8463661608684230e+01 6.7000000000001041e+00
 C 3.6899999999999999e+00 1.9173802439787472e+01 6.7000000000001041e+00
 C 3.6899999999999999e+00 2.0594084101993950e+01 6.7000000000001041e+00
 C 2.4600000000000000e+00 1.7043379946477753e+01 1.0050000000000157e+01
 C 2.4600000000000000e+00 1.9883943270890715e+01 1.0050000000000157e+01
 C 3.6899999999999999e+00 1.9173802439787472e+01 1.0050000000000157e+01
 C 3.6899999999999999e+00 1.7753520777580995e+01 1.0050000000000157e+01
 C 4.9199999999999999e+00 1.7043379946477753e+01 6.7000000000001041e+00
 C 4.9199999999999999e+00 1.8463661608684230e+01 6.7000000000001041e+00
 C 6.1500000000000004e+00 1.9173802439787472e+01 6.7000000000001041e+00
 C 6.1500000000000004e+00 2.0594084101993950e+01 6.7000000000001041e+00
 C 4.9199999999999999e+00 1.7043379946477753e+01 1.0050000000000157e+01
 C 4.9199999999999999e+00 1.9883943270890715e+01 1.0050000000000157e+01
 C 6.1500000000000004e+00 1.9173802439787472e+01 1.0050000000000157e+01
 C 6.1500000000000004e+00 1.7753520777580995e+01 1.0050000000000157e+01
 C 7.3799999999999999e+00 1.7043379946477753e+01 6.7000000000001041e+00
 C 7.3799999999999999e+00 1.8463661608684230e+01 6.7000000000001041e+00
 C 8.6099999999999994e+00 1.9173802439787472e+01 6.7000000000001041e+00
 C 8.6099999999999994e+00 2.0594084101993950e+01 6.7000000000001041e+00
 C 7.3799999999999999e+00 1.7043379946477753e+01 1.0050000000000157e+01
 C 7.3799999999999999e+00 1.9883943270890715e+01 1.0050000000000157e+01
 C 8.6099999999999994e+00 1.9173802439787472e+01 1.0050000000000157e+01
 C 8.6099999999999994e+00 1.7753520777580995e+01 1.0050000000000157e+01
 C 9.8399999999999999e+00 1.7043379946477753e+01 6.7000000000001041e+00
 C 9.8399999999999999e+00 1.8463661608684230e+01 6.7000000000001041e+00
 C 1.1070000000000000e+01 1.9173802439787472e+01 6.7000000000001041e+00
 C 1.1070000000000000e+01 2.0594084101993950e+01 6.7000000000001041e+00
 C 9.8399999999999999e+00 1.7043379946477753e+01 1.0050000000000157e+01
 C 9.8399999999999999e+00 1.9883943270890715e+01 1.0050000000000157e+01
 C 1.1070000000000000e+01 1.9173802439787472e+01 1.0050000000000157e+01
 C 1.1070000000000000e+01 1.7753520777580995e+01 1.0050000000000157e+01
